Circuit: * D:\Users\gizmo\Desktop\VCCS Unit\spice\variable current Darington 5V.asc

.step rc=100
Direct Newton iteration failed to find .op point.  (Use ".option noopiter" to skip.)
Starting Gmin stepping
Gmin = 10
Gmin = 1.07374
Gmin = 0.115292
Gmin = 0.0123794
Gmin = 0.00132923
Gmin = 0.000142725
vernier = 0.5
vernier = 0.25
Gmin = 8.43227e-005
vernier = 0.333333
vernier = 0.166667
vernier = 0.222222
Gmin = 5.84598e-005
vernier = 0.296296
vernier = 0.395061
Gmin = 2.94648e-005
vernier = 0.526748
Gmin = 9.91169e-006
vernier = 0.702331
vernier = 0.936441
Gmin = 1.76539e-006
vernier = 1
Gmin = 1.96974e-007
Gmin = 2.11499e-008
Gmin = 2.27095e-009
Gmin = 2.43842e-010
Gmin = 2.61823e-011
Gmin = 2.8113e-012
Gmin = 3.01861e-013
Gmin = 0
Gmin stepping succeeded in finding the operating point.

Direct Newton iteration for .op point succeeded.
.step rc=1000
.step rc=10000

Date: Mon Jul 17 18:53:59 2017
Total elapsed time: 0.083 seconds.

tnom = 27
temp = 27
method = trap
totiter = 715
traniter = 0
tranpoints = 0
accept = 0
rejected = 0
matrix size = 14
fillins = 11
solver = Normal
Matrix Compiler1: 1.28 KB object code size  0.3/0.1/[0.1]
Matrix Compiler2: 1.49 KB object code size  0.1/0.2/[0.1]


