Circuit: * D:\Users\gizmo\Documents\Develop\VCCS Unit\spice\variable current Darington 5V.asc

.step rl=1000
Direct Newton iteration failed to find .op point.  (Use ".option noopiter" to skip.)
Starting Gmin stepping
Gmin = 10
Gmin = 1.07374
Gmin = 0.115292
Gmin = 0.0123794
Gmin = 0.00132923
vernier = 0.5
Gmin = 0.000275318
vernier = 0.666667
vernier = 0.888888
Gmin = 6.27402e-005
vernier = 1
Gmin = 7.53781e-006
Gmin = 8.09366e-007
Gmin = 8.6905e-008
Gmin = 9.33136e-009
Gmin = 1.00195e-009
Gmin = 1.07583e-010
Gmin = 1.15517e-011
Gmin = 1.24035e-012
Gmin = 1.33182e-013
Gmin = 0
Gmin stepping succeeded in finding the operating point.

Direct Newton iteration for .op point succeeded.
.step rl=2000
.step rl=3000
.step rl=4000
.step rl=5000
.step rl=6000
.step rl=7000
.step rl=8000
.step rl=9000
.step rl=10000

Date: Sat Jul 22 03:42:18 2017
Total elapsed time: 0.282 seconds.

tnom = 27
temp = 27
method = trap
totiter = 1525
traniter = 0
tranpoints = 0
accept = 0
rejected = 0
matrix size = 14
fillins = 10
solver = Normal
Matrix Compiler1:      67 opcodes  0.3/[0.1]/0.1
Matrix Compiler2: 1.46 KB object code size  0.2/0.2/[0.1]


